Version 4.1
SHEET 1 880 680
WIRE 208 -32 112 -32
WIRE 208 48 208 -32
WIRE 112 64 112 48
WIRE 64 96 -16 96
WIRE 160 128 112 128
WIRE 64 176 64 96
WIRE 112 176 112 128
WIRE 112 176 64 176
WIRE 208 192 208 144
WIRE 320 192 208 192
WIRE 112 224 112 176
WIRE 160 224 112 224
WIRE 208 256 208 192
WIRE 160 336 160 224
FLAG -16 176 0
FLAG -16 96 A
IOPIN -16 96 In
FLAG 112 -32 B
IOPIN 112 -32 In
FLAG 320 192 OR
IOPIN 320 192 Out
FLAG 112 64 0
FLAG 208 432 0
SYMBOL pmos4 160 48 R0
SYMATTR InstName M1
SYMBOL nmos4 160 256 R0
SYMATTR InstName M2
SYMBOL voltage -16 80 R0
WINDOW 3 -191 -17 Left 2
WINDOW 123 0 0 Left 0
WINDOW 39 0 0 Left 0
SYMATTR Value PULSE(0 1.8 0 50p 50p 10n 20n)
SYMATTR InstName V2
SYMBOL voltage 112 -48 R0
WINDOW 3 -296 -16 Left 2
WINDOW 123 0 0 Left 0
WINDOW 39 0 0 Left 0
SYMATTR Value PULSE(0 1.8 0 50p 50p 20n 30n)
SYMATTR InstName V3
SYMBOL voltage 208 336 R0
WINDOW 123 0 0 Left 0
WINDOW 39 0 0 Left 0
SYMATTR InstName V1
SYMATTR Value 1.8
TEXT 224 -80 Left 2 !.tran 100n
